<?xml version="1.0" encoding="UTF-8"?>

<!-- generated on 2024-04-03 22:30:45 by Eclipse SUMO netconvert Version 1.18.0
<configuration xmlns:xsi="http://www.w3.org/2001/XMLSchema-instance" xsi:noNamespaceSchemaLocation="http://sumo.dlr.de/xsd/netconvertConfiguration.xsd">

    <input>
        <node-files value="motorway.nod.xml"/>
        <edge-files value="motorway.edg.xml"/>
    </input>

    <output>
        <output-file value="motorway.net.xml"/>
    </output>

</configuration>
-->

<net version="1.16" junctionCornerDetail="5" limitTurnSpeed="5.50" xmlns:xsi="http://www.w3.org/2001/XMLSchema-instance" xsi:noNamespaceSchemaLocation="http://sumo.dlr.de/xsd/net_file.xsd">

    <location netOffset="0.00,90.00" convBoundary="0.00,0.00,4000.00,90.00" origBoundary="0.00,-90.00,4120.00,0.00" projParameter="!"/>

    <edge id=":10_0" function="internal">
        <lane id=":10_0_0" index="0" speed="31.30" length="16.19" shape="3598.11,88.40 3602.00,88.02 3606.04,87.10 3610.06,85.94 3613.87,84.88"/>
    </edge>
    <edge id=":10_1" function="internal">
        <lane id=":10_1_0" index="0" speed="31.30" length="16.19" shape="3598.11,88.40 3614.30,88.40"/>
    </edge>
    <edge id=":10_2" function="internal">
        <lane id=":10_2_0" index="0" speed="31.30" length="16.19" shape="3598.11,88.40 3602.00,88.02 3606.04,87.10 3610.06,85.94 3613.87,84.88"/>
    </edge>
    <edge id=":10_3" function="internal">
        <lane id=":10_3_0" index="0" speed="31.30" length="16.19" shape="3598.11,88.40 3614.30,88.40"/>
    </edge>
    <edge id=":13_0" function="internal">
        <lane id=":13_0_0" index="0" speed="31.30" length="15.81" shape="398.50,58.40 402.33,58.02 406.24,57.10 410.12,55.94 413.87,54.88"/>
    </edge>
    <edge id=":13_1" function="internal">
        <lane id=":13_1_0" index="0" speed="31.30" length="16.19" shape="398.50,58.40 414.69,58.40"/>
    </edge>
    <edge id=":13_2" function="internal">
        <lane id=":13_2_0" index="0" speed="31.30" length="16.19" shape="398.50,58.40 402.39,58.78 406.44,59.70 410.46,60.86 414.26,61.92"/>
    </edge>
    <edge id=":13_3" function="internal">
        <lane id=":13_3_0" index="0" speed="31.30" length="15.81" shape="398.50,58.40 402.33,58.02 406.24,57.10 410.12,55.94 413.87,54.88"/>
    </edge>
    <edge id=":13_4" function="internal">
        <lane id=":13_4_0" index="0" speed="31.30" length="16.19" shape="398.50,58.40 414.69,58.40"/>
    </edge>
    <edge id=":13_5" function="internal">
        <lane id=":13_5_0" index="0" speed="31.30" length="16.19" shape="398.50,58.40 402.39,58.78 406.44,59.70 410.46,60.86 414.26,61.92"/>
    </edge>
    <edge id=":14_0" function="internal">
        <lane id=":14_0_0" index="0" speed="31.30" length="15.81" shape="798.50,58.40 802.33,58.02 806.24,57.10 810.12,55.94 813.87,54.88"/>
    </edge>
    <edge id=":14_1" function="internal">
        <lane id=":14_1_0" index="0" speed="31.30" length="16.19" shape="798.50,58.40 814.69,58.40"/>
    </edge>
    <edge id=":14_2" function="internal">
        <lane id=":14_2_0" index="0" speed="31.30" length="16.19" shape="798.50,58.40 802.39,58.78 806.44,59.70 810.46,60.86 814.26,61.92"/>
    </edge>
    <edge id=":14_3" function="internal">
        <lane id=":14_3_0" index="0" speed="31.30" length="15.81" shape="798.50,58.40 802.33,58.02 806.24,57.10 810.12,55.94 813.87,54.88"/>
    </edge>
    <edge id=":14_4" function="internal">
        <lane id=":14_4_0" index="0" speed="31.30" length="16.19" shape="798.50,58.40 814.69,58.40"/>
    </edge>
    <edge id=":14_5" function="internal">
        <lane id=":14_5_0" index="0" speed="31.30" length="16.19" shape="798.50,58.40 802.39,58.78 806.44,59.70 810.46,60.86 814.26,61.92"/>
    </edge>
    <edge id=":15_0" function="internal">
        <lane id=":15_0_0" index="0" speed="31.30" length="16.19" shape="1198.11,58.40 1202.00,58.02 1206.04,57.10 1210.06,55.94 1213.87,54.88"/>
    </edge>
    <edge id=":15_1" function="internal">
        <lane id=":15_1_0" index="0" speed="31.30" length="16.59" shape="1198.11,58.40 1214.69,58.40"/>
    </edge>
    <edge id=":15_2" function="internal">
        <lane id=":15_2_0" index="0" speed="31.30" length="16.57" shape="1198.11,58.40 1202.06,58.78 1206.24,59.70 1210.39,60.86 1214.26,61.92"/>
    </edge>
    <edge id=":15_3" function="internal">
        <lane id=":15_3_0" index="0" speed="31.30" length="16.19" shape="1198.11,58.40 1202.00,58.02 1206.04,57.10 1210.06,55.94 1213.87,54.88"/>
    </edge>
    <edge id=":15_4" function="internal">
        <lane id=":15_4_0" index="0" speed="31.30" length="16.59" shape="1198.11,58.40 1214.69,58.40"/>
    </edge>
    <edge id=":15_5" function="internal">
        <lane id=":15_5_0" index="0" speed="31.30" length="16.57" shape="1198.11,58.40 1202.06,58.78 1206.24,59.70 1210.39,60.86 1214.26,61.92"/>
    </edge>
    <edge id=":16_0" function="internal">
        <lane id=":16_0_0" index="0" speed="31.30" length="16.19" shape="1598.11,58.40 1602.00,58.02 1606.04,57.10 1610.06,55.94 1613.87,54.88"/>
    </edge>
    <edge id=":16_1" function="internal">
        <lane id=":16_1_0" index="0" speed="31.30" length="16.59" shape="1598.11,58.40 1614.69,58.40"/>
    </edge>
    <edge id=":16_2" function="internal">
        <lane id=":16_2_0" index="0" speed="31.30" length="16.57" shape="1598.11,58.40 1602.06,58.78 1606.24,59.70 1610.39,60.86 1614.26,61.92"/>
    </edge>
    <edge id=":16_3" function="internal">
        <lane id=":16_3_0" index="0" speed="31.30" length="16.19" shape="1598.11,58.40 1602.00,58.02 1606.04,57.10 1610.06,55.94 1613.87,54.88"/>
    </edge>
    <edge id=":16_4" function="internal">
        <lane id=":16_4_0" index="0" speed="31.30" length="16.59" shape="1598.11,58.40 1614.69,58.40"/>
    </edge>
    <edge id=":16_5" function="internal">
        <lane id=":16_5_0" index="0" speed="31.30" length="16.57" shape="1598.11,58.40 1602.06,58.78 1606.24,59.70 1610.39,60.86 1614.26,61.92"/>
    </edge>
    <edge id=":17_0" function="internal">
        <lane id=":17_0_0" index="0" speed="31.30" length="16.19" shape="1998.11,58.40 2002.00,58.02 2006.04,57.10 2010.06,55.94 2013.87,54.88"/>
    </edge>
    <edge id=":17_1" function="internal">
        <lane id=":17_1_0" index="0" speed="31.30" length="16.59" shape="1998.11,58.40 2014.69,58.40"/>
    </edge>
    <edge id=":17_2" function="internal">
        <lane id=":17_2_0" index="0" speed="31.30" length="16.57" shape="1998.11,58.40 2002.06,58.78 2006.24,59.70 2010.39,60.86 2014.26,61.92"/>
    </edge>
    <edge id=":17_3" function="internal">
        <lane id=":17_3_0" index="0" speed="31.30" length="16.19" shape="1998.11,58.40 2002.00,58.02 2006.04,57.10 2010.06,55.94 2013.87,54.88"/>
    </edge>
    <edge id=":17_4" function="internal">
        <lane id=":17_4_0" index="0" speed="31.30" length="16.59" shape="1998.11,58.40 2014.69,58.40"/>
    </edge>
    <edge id=":17_5" function="internal">
        <lane id=":17_5_0" index="0" speed="31.30" length="16.57" shape="1998.11,58.40 2002.06,58.78 2006.24,59.70 2010.39,60.86 2014.26,61.92"/>
    </edge>
    <edge id=":18_0" function="internal">
        <lane id=":18_0_0" index="0" speed="31.30" length="16.19" shape="2398.11,58.40 2402.00,58.02 2406.04,57.10 2410.06,55.94 2413.87,54.88"/>
    </edge>
    <edge id=":18_1" function="internal">
        <lane id=":18_1_0" index="0" speed="31.30" length="16.59" shape="2398.11,58.40 2414.69,58.40"/>
    </edge>
    <edge id=":18_2" function="internal">
        <lane id=":18_2_0" index="0" speed="31.30" length="16.57" shape="2398.11,58.40 2402.06,58.78 2406.24,59.70 2410.39,60.86 2414.26,61.92"/>
    </edge>
    <edge id=":18_3" function="internal">
        <lane id=":18_3_0" index="0" speed="31.30" length="16.19" shape="2398.11,58.40 2402.00,58.02 2406.04,57.10 2410.06,55.94 2413.87,54.88"/>
    </edge>
    <edge id=":18_4" function="internal">
        <lane id=":18_4_0" index="0" speed="31.30" length="16.59" shape="2398.11,58.40 2414.69,58.40"/>
    </edge>
    <edge id=":18_5" function="internal">
        <lane id=":18_5_0" index="0" speed="31.30" length="16.57" shape="2398.11,58.40 2402.06,58.78 2406.24,59.70 2410.39,60.86 2414.26,61.92"/>
    </edge>
    <edge id=":19_0" function="internal">
        <lane id=":19_0_0" index="0" speed="31.30" length="16.19" shape="2798.11,58.40 2802.00,58.02 2806.04,57.10 2810.06,55.94 2813.87,54.88"/>
    </edge>
    <edge id=":19_1" function="internal">
        <lane id=":19_1_0" index="0" speed="31.30" length="16.59" shape="2798.11,58.40 2814.69,58.40"/>
    </edge>
    <edge id=":19_2" function="internal">
        <lane id=":19_2_0" index="0" speed="31.30" length="16.57" shape="2798.11,58.40 2802.06,58.78 2806.24,59.70 2810.39,60.86 2814.26,61.92"/>
    </edge>
    <edge id=":19_3" function="internal">
        <lane id=":19_3_0" index="0" speed="31.30" length="16.19" shape="2798.11,58.40 2802.00,58.02 2806.04,57.10 2810.06,55.94 2813.87,54.88"/>
    </edge>
    <edge id=":19_4" function="internal">
        <lane id=":19_4_0" index="0" speed="31.30" length="16.59" shape="2798.11,58.40 2814.69,58.40"/>
    </edge>
    <edge id=":19_5" function="internal">
        <lane id=":19_5_0" index="0" speed="31.30" length="16.57" shape="2798.11,58.40 2802.06,58.78 2806.24,59.70 2810.39,60.86 2814.26,61.92"/>
    </edge>
    <edge id=":2_0" function="internal">
        <lane id=":2_0_0" index="0" speed="31.30" length="16.19" shape="398.11,88.40 402.00,88.02 406.04,87.10 410.06,85.94 413.87,84.88"/>
    </edge>
    <edge id=":2_1" function="internal">
        <lane id=":2_1_0" index="0" speed="31.30" length="16.19" shape="398.11,88.40 414.30,88.40"/>
    </edge>
    <edge id=":2_2" function="internal">
        <lane id=":2_2_0" index="0" speed="31.30" length="16.19" shape="398.11,88.40 402.00,88.02 406.04,87.10 410.06,85.94 413.87,84.88"/>
    </edge>
    <edge id=":2_3" function="internal">
        <lane id=":2_3_0" index="0" speed="31.30" length="16.19" shape="398.11,88.40 414.30,88.40"/>
    </edge>
    <edge id=":20_0" function="internal">
        <lane id=":20_0_0" index="0" speed="31.30" length="16.19" shape="3198.11,58.40 3202.00,58.02 3206.04,57.10 3210.06,55.94 3213.87,54.88"/>
    </edge>
    <edge id=":20_1" function="internal">
        <lane id=":20_1_0" index="0" speed="31.30" length="16.59" shape="3198.11,58.40 3214.69,58.40"/>
    </edge>
    <edge id=":20_2" function="internal">
        <lane id=":20_2_0" index="0" speed="31.30" length="16.57" shape="3198.11,58.40 3202.06,58.78 3206.24,59.70 3210.39,60.86 3214.26,61.92"/>
    </edge>
    <edge id=":20_3" function="internal">
        <lane id=":20_3_0" index="0" speed="31.30" length="16.19" shape="3198.11,58.40 3202.00,58.02 3206.04,57.10 3210.06,55.94 3213.87,54.88"/>
    </edge>
    <edge id=":20_4" function="internal">
        <lane id=":20_4_0" index="0" speed="31.30" length="16.59" shape="3198.11,58.40 3214.69,58.40"/>
    </edge>
    <edge id=":20_5" function="internal">
        <lane id=":20_5_0" index="0" speed="31.30" length="16.57" shape="3198.11,58.40 3202.06,58.78 3206.24,59.70 3210.39,60.86 3214.26,61.92"/>
    </edge>
    <edge id=":21_0" function="internal">
        <lane id=":21_0_0" index="0" speed="31.30" length="16.19" shape="3598.11,58.40 3602.00,58.02 3606.04,57.10 3610.06,55.94 3613.87,54.88"/>
    </edge>
    <edge id=":21_1" function="internal">
        <lane id=":21_1_0" index="0" speed="31.30" length="16.59" shape="3598.11,58.40 3614.69,58.40"/>
    </edge>
    <edge id=":21_2" function="internal">
        <lane id=":21_2_0" index="0" speed="31.30" length="16.57" shape="3598.11,58.40 3602.06,58.78 3606.24,59.70 3610.39,60.86 3614.26,61.92"/>
    </edge>
    <edge id=":21_3" function="internal">
        <lane id=":21_3_0" index="0" speed="31.30" length="16.19" shape="3598.11,58.40 3602.00,58.02 3606.04,57.10 3610.06,55.94 3613.87,54.88"/>
    </edge>
    <edge id=":21_4" function="internal">
        <lane id=":21_4_0" index="0" speed="31.30" length="16.59" shape="3598.11,58.40 3614.69,58.40"/>
    </edge>
    <edge id=":21_5" function="internal">
        <lane id=":21_5_0" index="0" speed="31.30" length="16.57" shape="3598.11,58.40 3602.06,58.78 3606.24,59.70 3610.39,60.86 3614.26,61.92"/>
    </edge>
    <edge id=":24_0" function="internal">
        <lane id=":24_0_0" index="0" speed="31.30" length="15.81" shape="398.50,28.40 402.33,28.02 406.24,27.10 410.12,25.94 413.87,24.88"/>
    </edge>
    <edge id=":24_1" function="internal">
        <lane id=":24_1_0" index="0" speed="31.30" length="16.19" shape="398.50,28.40 414.69,28.40"/>
    </edge>
    <edge id=":24_2" function="internal">
        <lane id=":24_2_0" index="0" speed="31.30" length="16.19" shape="398.50,28.40 402.39,28.78 406.44,29.70 410.46,30.86 414.26,31.92"/>
    </edge>
    <edge id=":24_3" function="internal">
        <lane id=":24_3_0" index="0" speed="31.30" length="15.81" shape="398.50,28.40 402.33,28.02 406.24,27.10 410.12,25.94 413.87,24.88"/>
    </edge>
    <edge id=":24_4" function="internal">
        <lane id=":24_4_0" index="0" speed="31.30" length="16.19" shape="398.50,28.40 414.69,28.40"/>
    </edge>
    <edge id=":24_5" function="internal">
        <lane id=":24_5_0" index="0" speed="31.30" length="16.19" shape="398.50,28.40 402.39,28.78 406.44,29.70 410.46,30.86 414.26,31.92"/>
    </edge>
    <edge id=":25_0" function="internal">
        <lane id=":25_0_0" index="0" speed="31.30" length="15.81" shape="798.50,28.40 802.33,28.02 806.24,27.10 810.12,25.94 813.87,24.88"/>
    </edge>
    <edge id=":25_1" function="internal">
        <lane id=":25_1_0" index="0" speed="31.30" length="16.19" shape="798.50,28.40 814.69,28.40"/>
    </edge>
    <edge id=":25_2" function="internal">
        <lane id=":25_2_0" index="0" speed="31.30" length="16.19" shape="798.50,28.40 802.39,28.78 806.44,29.70 810.46,30.86 814.26,31.92"/>
    </edge>
    <edge id=":25_3" function="internal">
        <lane id=":25_3_0" index="0" speed="31.30" length="15.81" shape="798.50,28.40 802.33,28.02 806.24,27.10 810.12,25.94 813.87,24.88"/>
    </edge>
    <edge id=":25_4" function="internal">
        <lane id=":25_4_0" index="0" speed="31.30" length="16.19" shape="798.50,28.40 814.69,28.40"/>
    </edge>
    <edge id=":25_5" function="internal">
        <lane id=":25_5_0" index="0" speed="31.30" length="16.19" shape="798.50,28.40 802.39,28.78 806.44,29.70 810.46,30.86 814.26,31.92"/>
    </edge>
    <edge id=":26_0" function="internal">
        <lane id=":26_0_0" index="0" speed="31.30" length="15.81" shape="1198.50,28.40 1202.33,28.02 1206.24,27.10 1210.12,25.94 1213.87,24.88"/>
    </edge>
    <edge id=":26_1" function="internal">
        <lane id=":26_1_0" index="0" speed="31.30" length="16.19" shape="1198.50,28.40 1214.69,28.40"/>
    </edge>
    <edge id=":26_2" function="internal">
        <lane id=":26_2_0" index="0" speed="31.30" length="16.19" shape="1198.50,28.40 1202.39,28.78 1206.44,29.70 1210.46,30.86 1214.26,31.92"/>
    </edge>
    <edge id=":26_3" function="internal">
        <lane id=":26_3_0" index="0" speed="31.30" length="15.81" shape="1198.50,28.40 1202.33,28.02 1206.24,27.10 1210.12,25.94 1213.87,24.88"/>
    </edge>
    <edge id=":26_4" function="internal">
        <lane id=":26_4_0" index="0" speed="31.30" length="16.19" shape="1198.50,28.40 1214.69,28.40"/>
    </edge>
    <edge id=":26_5" function="internal">
        <lane id=":26_5_0" index="0" speed="31.30" length="16.19" shape="1198.50,28.40 1202.39,28.78 1206.44,29.70 1210.46,30.86 1214.26,31.92"/>
    </edge>
    <edge id=":27_0" function="internal">
        <lane id=":27_0_0" index="0" speed="31.30" length="15.81" shape="1598.50,28.40 1602.33,28.02 1606.24,27.10 1610.12,25.94 1613.87,24.88"/>
    </edge>
    <edge id=":27_1" function="internal">
        <lane id=":27_1_0" index="0" speed="31.30" length="16.19" shape="1598.50,28.40 1614.69,28.40"/>
    </edge>
    <edge id=":27_2" function="internal">
        <lane id=":27_2_0" index="0" speed="31.30" length="16.19" shape="1598.50,28.40 1602.39,28.78 1606.44,29.70 1610.46,30.86 1614.26,31.92"/>
    </edge>
    <edge id=":27_3" function="internal">
        <lane id=":27_3_0" index="0" speed="31.30" length="15.81" shape="1598.50,28.40 1602.33,28.02 1606.24,27.10 1610.12,25.94 1613.87,24.88"/>
    </edge>
    <edge id=":27_4" function="internal">
        <lane id=":27_4_0" index="0" speed="31.30" length="16.19" shape="1598.50,28.40 1614.69,28.40"/>
    </edge>
    <edge id=":27_5" function="internal">
        <lane id=":27_5_0" index="0" speed="31.30" length="16.19" shape="1598.50,28.40 1602.39,28.78 1606.44,29.70 1610.46,30.86 1614.26,31.92"/>
    </edge>
    <edge id=":28_0" function="internal">
        <lane id=":28_0_0" index="0" speed="31.30" length="16.19" shape="1998.11,28.40 2002.00,28.02 2006.04,27.10 2010.06,25.94 2013.87,24.88"/>
    </edge>
    <edge id=":28_1" function="internal">
        <lane id=":28_1_0" index="0" speed="31.30" length="16.59" shape="1998.11,28.40 2014.69,28.40"/>
    </edge>
    <edge id=":28_2" function="internal">
        <lane id=":28_2_0" index="0" speed="31.30" length="16.57" shape="1998.11,28.40 2002.06,28.78 2006.24,29.70 2010.39,30.86 2014.26,31.92"/>
    </edge>
    <edge id=":28_3" function="internal">
        <lane id=":28_3_0" index="0" speed="31.30" length="16.19" shape="1998.11,28.40 2002.00,28.02 2006.04,27.10 2010.06,25.94 2013.87,24.88"/>
    </edge>
    <edge id=":28_4" function="internal">
        <lane id=":28_4_0" index="0" speed="31.30" length="16.59" shape="1998.11,28.40 2014.69,28.40"/>
    </edge>
    <edge id=":28_5" function="internal">
        <lane id=":28_5_0" index="0" speed="31.30" length="16.57" shape="1998.11,28.40 2002.06,28.78 2006.24,29.70 2010.39,30.86 2014.26,31.92"/>
    </edge>
    <edge id=":29_0" function="internal">
        <lane id=":29_0_0" index="0" speed="31.30" length="15.81" shape="2398.50,28.40 2402.33,28.02 2406.24,27.10 2410.12,25.94 2413.87,24.88"/>
    </edge>
    <edge id=":29_1" function="internal">
        <lane id=":29_1_0" index="0" speed="31.30" length="16.19" shape="2398.50,28.40 2414.69,28.40"/>
    </edge>
    <edge id=":29_2" function="internal">
        <lane id=":29_2_0" index="0" speed="31.30" length="16.19" shape="2398.50,28.40 2402.39,28.78 2406.44,29.70 2410.46,30.86 2414.26,31.92"/>
    </edge>
    <edge id=":29_3" function="internal">
        <lane id=":29_3_0" index="0" speed="31.30" length="15.81" shape="2398.50,28.40 2402.33,28.02 2406.24,27.10 2410.12,25.94 2413.87,24.88"/>
    </edge>
    <edge id=":29_4" function="internal">
        <lane id=":29_4_0" index="0" speed="31.30" length="16.19" shape="2398.50,28.40 2414.69,28.40"/>
    </edge>
    <edge id=":29_5" function="internal">
        <lane id=":29_5_0" index="0" speed="31.30" length="16.19" shape="2398.50,28.40 2402.39,28.78 2406.44,29.70 2410.46,30.86 2414.26,31.92"/>
    </edge>
    <edge id=":3_0" function="internal">
        <lane id=":3_0_0" index="0" speed="31.30" length="16.19" shape="798.11,88.40 802.00,88.02 806.04,87.10 810.06,85.94 813.87,84.88"/>
    </edge>
    <edge id=":3_1" function="internal">
        <lane id=":3_1_0" index="0" speed="31.30" length="16.19" shape="798.11,88.40 814.30,88.40"/>
    </edge>
    <edge id=":3_2" function="internal">
        <lane id=":3_2_0" index="0" speed="31.30" length="16.19" shape="798.11,88.40 802.00,88.02 806.04,87.10 810.06,85.94 813.87,84.88"/>
    </edge>
    <edge id=":3_3" function="internal">
        <lane id=":3_3_0" index="0" speed="31.30" length="16.19" shape="798.11,88.40 814.30,88.40"/>
    </edge>
    <edge id=":30_0" function="internal">
        <lane id=":30_0_0" index="0" speed="31.30" length="15.81" shape="2798.50,28.40 2802.33,28.02 2806.24,27.10 2810.12,25.94 2813.87,24.88"/>
    </edge>
    <edge id=":30_1" function="internal">
        <lane id=":30_1_0" index="0" speed="31.30" length="16.19" shape="2798.50,28.40 2814.69,28.40"/>
    </edge>
    <edge id=":30_2" function="internal">
        <lane id=":30_2_0" index="0" speed="31.30" length="16.19" shape="2798.50,28.40 2802.39,28.78 2806.44,29.70 2810.46,30.86 2814.26,31.92"/>
    </edge>
    <edge id=":30_3" function="internal">
        <lane id=":30_3_0" index="0" speed="31.30" length="15.81" shape="2798.50,28.40 2802.33,28.02 2806.24,27.10 2810.12,25.94 2813.87,24.88"/>
    </edge>
    <edge id=":30_4" function="internal">
        <lane id=":30_4_0" index="0" speed="31.30" length="16.19" shape="2798.50,28.40 2814.69,28.40"/>
    </edge>
    <edge id=":30_5" function="internal">
        <lane id=":30_5_0" index="0" speed="31.30" length="16.19" shape="2798.50,28.40 2802.39,28.78 2806.44,29.70 2810.46,30.86 2814.26,31.92"/>
    </edge>
    <edge id=":31_0" function="internal">
        <lane id=":31_0_0" index="0" speed="31.30" length="15.81" shape="3198.50,28.40 3202.33,28.02 3206.24,27.10 3210.12,25.94 3213.87,24.88"/>
    </edge>
    <edge id=":31_1" function="internal">
        <lane id=":31_1_0" index="0" speed="31.30" length="16.19" shape="3198.50,28.40 3214.69,28.40"/>
    </edge>
    <edge id=":31_2" function="internal">
        <lane id=":31_2_0" index="0" speed="31.30" length="16.19" shape="3198.50,28.40 3202.39,28.78 3206.44,29.70 3210.46,30.86 3214.26,31.92"/>
    </edge>
    <edge id=":31_3" function="internal">
        <lane id=":31_3_0" index="0" speed="31.30" length="15.81" shape="3198.50,28.40 3202.33,28.02 3206.24,27.10 3210.12,25.94 3213.87,24.88"/>
    </edge>
    <edge id=":31_4" function="internal">
        <lane id=":31_4_0" index="0" speed="31.30" length="16.19" shape="3198.50,28.40 3214.69,28.40"/>
    </edge>
    <edge id=":31_5" function="internal">
        <lane id=":31_5_0" index="0" speed="31.30" length="16.19" shape="3198.50,28.40 3202.39,28.78 3206.44,29.70 3210.46,30.86 3214.26,31.92"/>
    </edge>
    <edge id=":32_0" function="internal">
        <lane id=":32_0_0" index="0" speed="31.30" length="15.81" shape="3598.50,28.40 3602.33,28.02 3606.24,27.10 3610.12,25.94 3613.87,24.88"/>
    </edge>
    <edge id=":32_1" function="internal">
        <lane id=":32_1_0" index="0" speed="31.30" length="16.19" shape="3598.50,28.40 3614.69,28.40"/>
    </edge>
    <edge id=":32_2" function="internal">
        <lane id=":32_2_0" index="0" speed="31.30" length="16.19" shape="3598.50,28.40 3602.39,28.78 3606.44,29.70 3610.46,30.86 3614.26,31.92"/>
    </edge>
    <edge id=":32_3" function="internal">
        <lane id=":32_3_0" index="0" speed="31.30" length="15.81" shape="3598.50,28.40 3602.33,28.02 3606.24,27.10 3610.12,25.94 3613.87,24.88"/>
    </edge>
    <edge id=":32_4" function="internal">
        <lane id=":32_4_0" index="0" speed="31.30" length="16.19" shape="3598.50,28.40 3614.69,28.40"/>
    </edge>
    <edge id=":32_5" function="internal">
        <lane id=":32_5_0" index="0" speed="31.30" length="16.19" shape="3598.50,28.40 3602.39,28.78 3606.44,29.70 3610.46,30.86 3614.26,31.92"/>
    </edge>
    <edge id=":35_0" function="internal">
        <lane id=":35_0_0" index="0" speed="31.30" length="16.19" shape="398.50,-1.60 414.69,-1.60"/>
    </edge>
    <edge id=":35_1" function="internal">
        <lane id=":35_1_0" index="0" speed="31.30" length="16.19" shape="398.50,-1.60 402.39,-1.22 406.44,-0.30 410.46,0.86 414.26,1.92"/>
    </edge>
    <edge id=":35_2" function="internal">
        <lane id=":35_2_0" index="0" speed="31.30" length="16.19" shape="398.50,-1.60 414.69,-1.60"/>
    </edge>
    <edge id=":35_3" function="internal">
        <lane id=":35_3_0" index="0" speed="31.30" length="16.19" shape="398.50,-1.60 402.39,-1.22 406.44,-0.30 410.46,0.86 414.26,1.92"/>
    </edge>
    <edge id=":36_0" function="internal">
        <lane id=":36_0_0" index="0" speed="31.30" length="16.19" shape="798.50,-1.60 814.69,-1.60"/>
    </edge>
    <edge id=":36_1" function="internal">
        <lane id=":36_1_0" index="0" speed="31.30" length="16.19" shape="798.50,-1.60 802.39,-1.22 806.44,-0.30 810.46,0.86 814.26,1.92"/>
    </edge>
    <edge id=":36_2" function="internal">
        <lane id=":36_2_0" index="0" speed="31.30" length="16.19" shape="798.50,-1.60 814.69,-1.60"/>
    </edge>
    <edge id=":36_3" function="internal">
        <lane id=":36_3_0" index="0" speed="31.30" length="16.19" shape="798.50,-1.60 802.39,-1.22 806.44,-0.30 810.46,0.86 814.26,1.92"/>
    </edge>
    <edge id=":37_0" function="internal">
        <lane id=":37_0_0" index="0" speed="31.30" length="16.19" shape="1198.50,-1.60 1214.69,-1.60"/>
    </edge>
    <edge id=":37_1" function="internal">
        <lane id=":37_1_0" index="0" speed="31.30" length="16.19" shape="1198.50,-1.60 1202.39,-1.22 1206.44,-0.30 1210.46,0.86 1214.26,1.92"/>
    </edge>
    <edge id=":37_2" function="internal">
        <lane id=":37_2_0" index="0" speed="31.30" length="16.19" shape="1198.50,-1.60 1214.69,-1.60"/>
    </edge>
    <edge id=":37_3" function="internal">
        <lane id=":37_3_0" index="0" speed="31.30" length="16.19" shape="1198.50,-1.60 1202.39,-1.22 1206.44,-0.30 1210.46,0.86 1214.26,1.92"/>
    </edge>
    <edge id=":38_0" function="internal">
        <lane id=":38_0_0" index="0" speed="31.30" length="16.19" shape="1598.50,-1.60 1614.69,-1.60"/>
    </edge>
    <edge id=":38_1" function="internal">
        <lane id=":38_1_0" index="0" speed="31.30" length="16.19" shape="1598.50,-1.60 1602.39,-1.22 1606.44,-0.30 1610.46,0.86 1614.26,1.92"/>
    </edge>
    <edge id=":38_2" function="internal">
        <lane id=":38_2_0" index="0" speed="31.30" length="16.19" shape="1598.50,-1.60 1614.69,-1.60"/>
    </edge>
    <edge id=":38_3" function="internal">
        <lane id=":38_3_0" index="0" speed="31.30" length="16.19" shape="1598.50,-1.60 1602.39,-1.22 1606.44,-0.30 1610.46,0.86 1614.26,1.92"/>
    </edge>
    <edge id=":39_0" function="internal">
        <lane id=":39_0_0" index="0" speed="31.30" length="16.19" shape="1998.50,-1.60 2014.69,-1.60"/>
    </edge>
    <edge id=":39_1" function="internal">
        <lane id=":39_1_0" index="0" speed="31.30" length="16.19" shape="1998.50,-1.60 2002.39,-1.22 2006.44,-0.30 2010.46,0.86 2014.26,1.92"/>
    </edge>
    <edge id=":39_2" function="internal">
        <lane id=":39_2_0" index="0" speed="31.30" length="16.19" shape="1998.50,-1.60 2014.69,-1.60"/>
    </edge>
    <edge id=":39_3" function="internal">
        <lane id=":39_3_0" index="0" speed="31.30" length="16.19" shape="1998.50,-1.60 2002.39,-1.22 2006.44,-0.30 2010.46,0.86 2014.26,1.92"/>
    </edge>
    <edge id=":4_0" function="internal">
        <lane id=":4_0_0" index="0" speed="31.30" length="16.19" shape="1198.11,88.40 1202.00,88.02 1206.04,87.10 1210.06,85.94 1213.87,84.88"/>
    </edge>
    <edge id=":4_1" function="internal">
        <lane id=":4_1_0" index="0" speed="31.30" length="16.19" shape="1198.11,88.40 1214.30,88.40"/>
    </edge>
    <edge id=":4_2" function="internal">
        <lane id=":4_2_0" index="0" speed="31.30" length="16.19" shape="1198.11,88.40 1202.00,88.02 1206.04,87.10 1210.06,85.94 1213.87,84.88"/>
    </edge>
    <edge id=":4_3" function="internal">
        <lane id=":4_3_0" index="0" speed="31.30" length="16.19" shape="1198.11,88.40 1214.30,88.40"/>
    </edge>
    <edge id=":40_0" function="internal">
        <lane id=":40_0_0" index="0" speed="31.30" length="16.19" shape="2398.50,-1.60 2414.69,-1.60"/>
    </edge>
    <edge id=":40_1" function="internal">
        <lane id=":40_1_0" index="0" speed="31.30" length="16.19" shape="2398.50,-1.60 2402.39,-1.22 2406.44,-0.30 2410.46,0.86 2414.26,1.92"/>
    </edge>
    <edge id=":40_2" function="internal">
        <lane id=":40_2_0" index="0" speed="31.30" length="16.19" shape="2398.50,-1.60 2414.69,-1.60"/>
    </edge>
    <edge id=":40_3" function="internal">
        <lane id=":40_3_0" index="0" speed="31.30" length="16.19" shape="2398.50,-1.60 2402.39,-1.22 2406.44,-0.30 2410.46,0.86 2414.26,1.92"/>
    </edge>
    <edge id=":41_0" function="internal">
        <lane id=":41_0_0" index="0" speed="31.30" length="16.19" shape="2798.50,-1.60 2814.69,-1.60"/>
    </edge>
    <edge id=":41_1" function="internal">
        <lane id=":41_1_0" index="0" speed="31.30" length="16.19" shape="2798.50,-1.60 2802.39,-1.22 2806.44,-0.30 2810.46,0.86 2814.26,1.92"/>
    </edge>
    <edge id=":41_2" function="internal">
        <lane id=":41_2_0" index="0" speed="31.30" length="16.19" shape="2798.50,-1.60 2814.69,-1.60"/>
    </edge>
    <edge id=":41_3" function="internal">
        <lane id=":41_3_0" index="0" speed="31.30" length="16.19" shape="2798.50,-1.60 2802.39,-1.22 2806.44,-0.30 2810.46,0.86 2814.26,1.92"/>
    </edge>
    <edge id=":42_0" function="internal">
        <lane id=":42_0_0" index="0" speed="31.30" length="16.19" shape="3198.50,-1.60 3214.69,-1.60"/>
    </edge>
    <edge id=":42_1" function="internal">
        <lane id=":42_1_0" index="0" speed="31.30" length="16.19" shape="3198.50,-1.60 3202.39,-1.22 3206.44,-0.30 3210.46,0.86 3214.26,1.92"/>
    </edge>
    <edge id=":42_2" function="internal">
        <lane id=":42_2_0" index="0" speed="31.30" length="16.19" shape="3198.50,-1.60 3214.69,-1.60"/>
    </edge>
    <edge id=":42_3" function="internal">
        <lane id=":42_3_0" index="0" speed="31.30" length="16.19" shape="3198.50,-1.60 3202.39,-1.22 3206.44,-0.30 3210.46,0.86 3214.26,1.92"/>
    </edge>
    <edge id=":43_0" function="internal">
        <lane id=":43_0_0" index="0" speed="31.30" length="16.19" shape="3598.50,-1.60 3614.69,-1.60"/>
    </edge>
    <edge id=":43_1" function="internal">